@<TRIPOS>MOLECULE
aspirin
   21    21     1     0     0
SMALL
bcc


@<TRIPOS>ATOM
      1 C1          1.8850   -1.0360   -0.1120 ca        1 MOL     -0.154000
      2 C2          0.8070   -0.4630    0.5610 ca        1 MOL     -0.082000
      3 C3          2.9210   -1.6310    0.6080 ca        1 MOL     -0.057000
      4 C4          0.7640   -0.4840    1.9550 ca        1 MOL     -0.147000
      5 C5          2.8780   -1.6520    2.0020 ca        1 MOL     -0.147600
      6 C6          1.8000   -1.0790    2.6760 ca        1 MOL      0.180100
      7 C7          3.9700   -2.2780    2.7350 c         1 MOL      0.665700
      8 C8          2.3310    0.0260    4.6460 c         1 MOL      0.665100
      9 C9          2.2130   -0.0810    6.1380 c3        1 MOL     -0.147100
     10 O1          3.8680   -2.8320    3.8330 o         1 MOL     -0.565000
     11 O2          2.8710    0.9580    4.0640 o         1 MOL     -0.518000
     12 O3          5.1550   -2.1930    2.0720 oh        1 MOL     -0.605100
     13 O4          1.7390   -1.0910    4.0370 os        1 MOL     -0.381200
     14 H1          1.9180   -1.0200   -1.1980 ha        1 MOL      0.143000
     15 H2          0.0010    0.0000   -0.0010 ha        1 MOL      0.141000
     16 H3          3.7560   -2.0750    0.0730 ha        1 MOL      0.159000
     17 H4         -0.0790   -0.0360    2.4740 ha        1 MOL      0.154000
     18 H5          1.2850    0.3910    6.4710 hc        1 MOL      0.082700
     19 H6          3.0550    0.4380    6.6060 hc        1 MOL      0.082700
     20 H7          2.2410   -1.1320    6.4370 hc        1 MOL      0.082700
     21 H8          5.8970   -2.6120    2.5580 ho        1 MOL      0.448000
@<TRIPOS>BOND
     1    1    2 ar  
     2    1    3 ar  
     3    2    4 ar  
     4    3    5 ar  
     5    4    6 ar  
     6    5    6 ar  
     7    5    7 1   
     8    6   13 1   
     9    7   10 2   
    10    7   12 1   
    11    8    9 1   
    12    8   11 2   
    13    8   13 1   
    14    1   14 1   
    15    2   15 1   
    16    3   16 1   
    17    4   17 1   
    18    9   18 1   
    19    9   19 1   
    20    9   20 1   
    21   12   21 1   
@<TRIPOS>SUBSTRUCTURE
     1 MOL         1 TEMP              0 ****  ****    0 ROOT
