@<TRIPOS>MOLECULE
aspirin
   21    21     0     0     0
SMALL
NO_CHARGES

@<TRIPOS>ATOM
      1 C1          1.8851   -1.0363   -0.1124 C.ar      1 MOL         0.0000
      2 C2          0.8066   -0.4630    0.5610 C.ar      1 MOL         0.0000
      3 C3          2.9210   -1.6309    0.6081 C.ar      1 MOL         0.0000
      4 C4          0.7638   -0.4841    1.9551 C.ar      1 MOL         0.0000
      5 C5          2.8783   -1.6520    2.0022 C.ar      1 MOL         0.0000
      6 C6          1.7997   -1.0786    2.6757 C.ar      1 MOL         0.0000
      7 C7          3.9701   -2.2777    2.7351 C.2       1 MOL         0.0000
      8 C8          2.3314    0.0263    4.6465 C.2       1 MOL         0.0000
      9 C9          2.2132   -0.0809    6.1379 C.3       1 MOL         0.0000
     10 O1          3.8679   -2.8316    3.8333 O.2       1 MOL         0.0000
     11 O2          2.8707    0.9579    4.0641 O.2       1 MOL         0.0000
     12 O3          5.1553   -2.1929    2.0723 O.3       1 MOL         0.0000
     13 O4          1.7389   -1.0910    4.0373 O.3       1 MOL         0.0000
     14 H1          1.9181   -1.0197   -1.1981 H         1 MOL         0.0000
     15 H2          0.0007    0.0002   -0.0006 H         1 MOL         0.0000
     16 H3          3.7563   -2.0749    0.0727 H         1 MOL         0.0000
     17 H4         -0.0794   -0.0358    2.4735 H         1 MOL         0.0000
     18 H5          1.2853    0.3906    6.4713 H         1 MOL         0.0000
     19 H6          3.0549    0.4378    6.6059 H         1 MOL         0.0000
     20 H7          2.2413   -1.1317    6.4372 H         1 MOL         0.0000
     21 H8          5.8974   -2.6125    2.5576 H         1 MOL         0.0000
@<TRIPOS>BOND
     1    1    2 ar
     2    1    3 ar
     3    2    4 ar
     4    3    5 ar
     5    4    6 ar
     6    5    6 ar
     7    5    7 1
     8    6   13 1
     9    7   10 2
    10    7   12 1
    11    8    9 1
    12    8   11 2
    13    8   13 1
    14    1   14 1
    15    2   15 1
    16    3   16 1
    17    4   17 1
    18    9   18 1
    19    9   19 1
    20    9   20 1
    21   12   21 1
